670busbars/Lines.dss
New line.linha_MCLD205_2549 bus1 = 2126 bus2 = 1803 length = 0.262 phases = 3 r1 = 0.21379773 x1 = 0.22916307 r0 = 0.64139315 x0 = 0.68748916 c1 = 0 c0 = 0 units = km normamps = 456.22595 
New line.linha_MCLD205_2554 bus1 = 1803 bus2 = 278 length = 0.114 phases = 3 r1 = 0.2469 x1 = 0.26100002 r0 = 0.74069999 x0 = 0.78299999 c1 = 0 c0 = 0 units = km normamps = 456 
New line.linha_MCLD205_2560 bus1 = 1814 bus2 = 1812 length = 0.1021 phases = 3 r1 = 0.2006 x1 = 0.40260002 r0 = 0.72000002 x0 = 1.407 c1 = 0 c0 = 0 units = km normamps = 576 
New line.linha_MCLD205_2561 bus1 = 1812 bus2 = 1811 length = 0.26820001 phases = 3 r1 = 0.2006 x1 = 0.4026 r0 = 0.72000003 x0 = 1.4069999 c1 = 0 c0 = 0 units = km normamps = 576 
New line.linha_MCLD205_2559 bus1 = 1801 bus2 = 1800 length = 0.035 phases = 3 r1 = 0.24689999 x1 = 0.26100002 r0 = 0.74069998 x0 = 0.78299999 c1 = 0 c0 = 0 units = km normamps = 456 
New line.linha_MCLD205_2562 bus1 = 1811 bus2 = 1810 length = 0.1723 phases = 3 r1 = 0.20059999 x1 = 0.40259998 r0 = 0.72000001 x0 = 1.407 c1 = 0 c0 = 0 units = km normamps = 576 
New line.linha_MCLD205_2563 bus1 = 1810 bus2 = 1808 length = 0.48019999 phases = 3 r1 = 0.20059999 x1 = 0.40259999 r0 = 0.72000005 x0 = 1.407 c1 = 0 c0 = 0 units = km normamps = 576 
New line.linha_MCLD205_2565 bus1 = 1808 bus2 = 276 length = 0.37889999 phases = 3 r1 = 0.2006 x1 = 0.40260001 r0 = 0.72000004 x0 = 1.4069999 c1 = 0 c0 = 0 units = km normamps = 576 
New line.linha_MCLD205_2564 bus1 = 1810 bus2 = 1809 length = 0.029200001 phases = 3 r1 = 1.0145 x1 = 0.46790001 r0 = 1.7625 x0 = 1.8902 c1 = 0 c0 = 0 units = km normamps = 201 
New line.linha_MCLD205_2566 bus1 = 276 bus2 = 1824 length = 0.1778 phases = 3 r1 = 0.20059999 x1 = 0.40259999 r0 = 0.72000002 x0 = 1.407 c1 = 0 c0 = 0 units = km normamps = 576 
New line.linha_MCLD205_2567 bus1 = 1824 bus2 = 1823 length = 0.1802 phases = 3 r1 = 0.20060001 x1 = 0.40260001 r0 = 0.72000008 x0 = 1.4069999 c1 = 0 c0 = 0 units = km normamps = 576 
New line.linha_MCLD205_2568 bus1 = 1823 bus2 = 1822 length = 0.031800002 phases = 3 r1 = 0.20060001 x1 = 0.40259997 r0 = 0.72000003 x0 = 1.4069999 c1 = 0 c0 = 0 units = km normamps = 576 
//New line.linha_MCLD205_2570 bus1 = 1822 bus2 = NA_4047 length = 0.032499999 phases = 3 r1 = 0.2006 x1 = 0.4026 r0 = 0.71999999 x0 = 1.4069999 c1 = 0 c0 = 0 units = km normamps = 576 
New line.linha_MCLD205_2571 bus1 = 275 bus2 = 1820 length = 0.0297 phases = 3 r1 = 0.20060001 x1 = 0.4026 r0 = 0.72000004 x0 = 1.4069999 c1 = 0 c0 = 0 units = km normamps = 576 
New line.linha_MCLD205_2573 bus1 = 1820 bus2 = 273 length = 0.16339999 phases = 3 r1 = 0.20060001 x1 = 0.40259997 r0 = 0.72000003 x0 = 1.407 c1 = 0 c0 = 0 units = km normamps = 576 
New line.linha_MCLD205_2576 bus1 = 273 bus2 = 1818 length = 0.052000001 phases = 3 r1 = 0.20059999 x1 = 0.40259998 r0 = 0.72 x0 = 1.4069999 c1 = 0 c0 = 0 units = km normamps = 576 
New line.linha_MCLD205_2580 bus1 = 1818 bus2 = 1817 length = 0.1587 phases = 3 r1 = 0.2006 x1 = 0.40259998 r0 = 0.71999998 x0 = 1.4069999 c1 = 0 c0 = 0 units = km normamps = 576 
New line.linha_MCLD205_2574 bus1 = 1859 bus2 = 1858 length = 0.1424 phases = 3 r1 = 1.6117999 x1 = 0.48530002 r0 = 2.3877002 x0 = 1.9433001 c1 = 0 c0 = 0 units = km normamps = 150 
New line.linha_MCLD205_2582 bus1 = 1817 bus2 = 272 length = 0.1085 phases = 3 r1 = 0.20060001 x1 = 0.40260001 r0 = 0.72000001 x0 = 1.4069999 c1 = 0 c0 = 0 units = km normamps = 576 
New line.linha_MCLD205_2578 bus1 = 1857 bus2 = 1854 length = 0.095899999 phases = 3 r1 = 1.0145 x1 = 0.46790001 r0 = 1.7625001 x0 = 1.8902001 c1 = 0 c0 = 0 units = km normamps = 201 
New line.linha_MCLD205_2583 bus1 = 1864 bus2 = 1863 length = 0.023499999 phases = 3 r1 = 1.0145 x1 = 0.46790001 r0 = 1.7625 x0 = 1.8902 c1 = 0 c0 = 0 units = km normamps = 201 
New line.linha_MCLD205_2587 bus1 = 270 bus2 = 1868 length = 0.0244 phases = 3 r1 = 0.63749998 x1 = 0.45039999 r0 = 1.3434 x0 = 1.6343999 c1 = 0 c0 = 0 units = km normamps = 272 
New line.linha_MCLD205_2589 bus1 = 269 bus2 = 1877 length = 0.0854 phases = 3 r1 = 0.73940005 x1 = 0.30479999 r0 = 2.2181999 x0 = 0.91440002 c1 = 0 c0 = 0 units = km normamps = 229 
New line.linha_MCLD205_2591 bus1 = 1877 bus2 = 1876 length = 0.1218 phases = 3 r1 = 0.73940005 x1 = 0.30480002 r0 = 2.2181999 x0 = 0.91439998 c1 = 0 c0 = 0 units = km normamps = 229 
New line.linha_MCLD205_2593 bus1 = 1876 bus2 = 1875 length = 0.037599999 phases = 3 r1 = 0.73940003 x1 = 0.30480001 r0 = 2.2181999 x0 = 0.91439995 c1 = 0 c0 = 0 units = km normamps = 229 
New line.linha_MCLD205_2600 bus1 = 264 bus2 = 263 length = 0.067599997 phases = 3 r1 = 0.2006 x1 = 0.40260001 r0 = 0.72 x0 = 1.407 c1 = 0 c0 = 0 units = km normamps = 576 
New line.linha_MCLD205_2603 bus1 = 263 bus2 = 259 length = 0.1566 phases = 3 r1 = 0.2006 x1 = 0.4026 r0 = 0.72000004 x0 = 1.4069999 c1 = 0 c0 = 0 units = km normamps = 576 
New line.linha_MCLD205_2596 bus1 = 1876 bus2 = 1873 length = 0.0757 phases = 3 r1 = 1.0145 x1 = 0.46790003 r0 = 1.2781001 x0 = 0.94950001 c1 = 0 c0 = 0 units = km normamps = 201 
New line.linha_MCLD205_2601 bus1 = 1873 bus2 = 1872 length = 0.16509999 phases = 3 r1 = 1.0145001 x1 = 0.46789998 r0 = 1.2781 x0 = 0.94950001 c1 = 0 c0 = 0 units = km normamps = 201 
//New line.linha_MCLD205_2607 bus1 = 259 bus2 = NA_4059 length = 0.1508 phases = 3 r1 = 0.2006 x1 = 0.40259999 r0 = 0.72000004 x0 = 1.4069999 c1 = 0 c0 = 0 units = km normamps = 576 
New line.linha_MCLD205_2602 bus1 = 254 bus2 = 1887 length = 0.046100002 phases = 3 r1 = 1.0145 x1 = 0.46790001 r0 = 1.7625001 x0 = 1.8901999 c1 = 0 c0 = 0 units = km normamps = 201 
New line.linha_MCLD205_2605 bus1 = 1887 bus2 = 1886 length = 0.2297 phases = 3 r1 = 1.0145 x1 = 0.4679 r0 = 1.7625 x0 = 1.8902 c1 = 0 c0 = 0 units = km normamps = 201 
New line.linha_MCLD205_2604 bus1 = 1872 bus2 = 1870 length = 0.1494 phases = 3 r1 = 1.0145 x1 = 0.4679 r0 = 1.2781 x0 = 0.94950005 c1 = 0 c0 = 0 units = km normamps = 201 
New line.linha_MCLD205_2610 bus1 = 1886 bus2 = 1884 length = 0.032000002 phases = 3 r1 = 1.0145 x1 = 0.4679 r0 = 1.7625001 x0 = 1.8902001 c1 = 0 c0 = 0 units = km normamps = 201 
New line.linha_MCLD205_2613 bus1 = 1884 bus2 = 1883 length = 0.2362 phases = 3 r1 = 1.0145 x1 = 0.46790001 r0 = 1.7625001 x0 = 1.8902 c1 = 0 c0 = 0 units = km normamps = 201 
New line.linha_MCLD205_2615 bus1 = 246 bus2 = 243 length = 0.032200001 phases = 3 r1 = 0.2006 x1 = 0.40260002 r0 = 0.72000002 x0 = 1.407 c1 = 0 c0 = 0 units = km normamps = 576 
New line.linha_MCLD205_2617 bus1 = 243 bus2 = 242 length = 0.1232 phases = 3 r1 = 0.2006 x1 = 0.4026 r0 = 0.72000006 x0 = 1.4069999 c1 = 0 c0 = 0 units = km normamps = 576 
New line.linha_MCLD205_2614 bus1 = 1883 bus2 = 1881 length = 0.1166 phases = 3 r1 = 1.0145 x1 = 0.4679 r0 = 1.7625 x0 = 1.8902001 c1 = 0 c0 = 0 units = km normamps = 201 
//New line.linha_MCLD205_2616 bus1 = 1881 bus2 = NA_4063 length = 0.099799998 phases = 3 r1 = 1.0145 x1 = 0.46790003 r0 = 1.7625001 x0 = 1.8902001 c1 = 0 c0 = 0 units = km normamps = 201 
New line.linha_MCLD205_2618 bus1 = 242 bus2 = 241 length = 0.1124 phases = 3 r1 = 0.2006 x1 = 0.40260001 r0 = 0.72000005 x0 = 1.407 c1 = 0 c0 = 0 units = km normamps = 576 
New line.linha_MCLD205_2620 bus1 = 241 bus2 = 239 length = 0.20630001 phases = 3 r1 = 0.2006 x1 = 0.4026 r0 = 0.72000005 x0 = 1.4069999 c1 = 0 c0 = 0 units = km normamps = 576 
New line.linha_MCLD205_2621 bus1 = 239 bus2 = 238 length = 0.0184 phases = 3 r1 = 0.2006 x1 = 0.40259999 r0 = 0.72000007 x0 = 1.4069999 c1 = 0 c0 = 0 units = km normamps = 576 
New line.linha_MCLD205_2624 bus1 = 238 bus2 = 236 length = 0.066399999 phases = 3 r1 = 0.2006 x1 = 0.40259998 r0 = 0.72000008 x0 = 1.407 c1 = 0 c0 = 0 units = km normamps = 576 
New line.linha_MCLD205_2626 bus1 = 1906 bus2 = 1900 length = 0.1886 phases = 3 r1 = 1.0145 x1 = 0.46790003 r0 = 1.7625001 x0 = 1.8902 c1 = 0 c0 = 0 units = km normamps = 201 
New line.linha_MCLD205_2627 bus1 = 1906 bus2 = 1901 length = 0.051199999 phases = 3 r1 = 1.0145 x1 = 0.46790001 r0 = 1.7625001 x0 = 1.8901999 c1 = 0 c0 = 0 units = km normamps = 201 
New line.linha_MCLD205_2629 bus1 = 1847 bus2 = 1846 length = 0.059599999 phases = 3 r1 = 1.0145 x1 = 0.46790001 r0 = 1.7625 x0 = 1.8902001 c1 = 0 c0 = 0 units = km normamps = 201 
New line.linha_MCLD205_2633 bus1 = 1846 bus2 = 1845 length = 0.0188 phases = 3 r1 = 1.0145 x1 = 0.46789999 r0 = 1.7625001 x0 = 1.8902 c1 = 0 c0 = 0 units = km normamps = 201 
New line.linha_MCLD205_2631 bus1 = 1902 bus2 = 1899 length = 0.125 phases = 3 r1 = 1.0145 x1 = 0.4679 r0 = 1.7625001 x0 = 1.8902 c1 = 0 c0 = 0 units = km normamps = 201 
New line.linha_MCLD205_2636 bus1 = 1898 bus2 = 1897 length = 0.1223 phases = 3 r1 = 1.0145 x1 = 0.46789999 r0 = 1.7625001 x0 = 1.8902 c1 = 0 c0 = 0 units = km normamps = 201 
New line.linha_MCLD205_2642 bus1 = 234 bus2 = 232 length = 0.032699998 phases = 3 r1 = 0.2006 x1 = 0.40260001 r0 = 0.72000003 x0 = 1.4069999 c1 = 0 c0 = 0 units = km normamps = 576 
New line.linha_MCLD205_2647 bus1 = 232 bus2 = 231 length = 0.043900002 phases = 3 r1 = 0.20059999 x1 = 0.40260001 r0 = 0.72000005 x0 = 1.4069999 c1 = 0 c0 = 0 units = km normamps = 576 
New line.linha_MCLD205_2641 bus1 = 235 bus2 = 1981 length = 0.1169 phases = 3 r1 = 1.6118 x1 = 0.48530003 r0 = 2.3877002 x0 = 1.9433001 c1 = 0 c0 = 0 units = km normamps = 150 
New line.linha_MCLD205_2645 bus1 = 1981 bus2 = 1980 length = 0.3712 phases = 3 r1 = 1.6118 x1 = 0.48530001 r0 = 2.3877001 x0 = 1.9432999 c1 = 0 c0 = 0 units = km normamps = 150 
New line.linha_MCLD205_2638 bus1 = 1914 bus2 = 1911 length = 0.065800004 phases = 3 r1 = 1.0145 x1 = 0.4679 r0 = 1.7625001 x0 = 1.8902002 c1 = 0 c0 = 0 units = km normamps = 201 
New line.linha_MCLD205_2643 bus1 = 1911 bus2 = 1910 length = 0.1452 phases = 3 r1 = 1.0145 x1 = 0.46790002 r0 = 1.7625001 x0 = 1.8902 c1 = 0 c0 = 0 units = km normamps = 201 
New line.linha_MCLD205_2646 bus1 = 234 bus2 = 1987 length = 0.125 phases = 3 r1 = 1.6117999 x1 = 0.48530003 r0 = 2.3877001 x0 = 1.9433001 c1 = 0 c0 = 0 units = km normamps = 150 
New line.linha_MCLD205_2651 bus1 = 1987 bus2 = 1986 length = 0.16580001 phases = 3 r1 = 1.6117999 x1 = 0.48530002 r0 = 2.3877002 x0 = 1.9433 c1 = 0 c0 = 0 units = km normamps = 150 
New line.linha_MCLD205_2644 bus1 = 1977 bus2 = 1975 length = 0.084600002 phases = 3 r1 = 0.3184 x1 = 0.42370001 r0 = 0.83779995 x0 = 1.4285999 c1 = 0 c0 = 0 units = km normamps = 425 
New line.linha_MCLD205_2650 bus1 = 1975 bus2 = 1974 length = 0.0166 phases = 3 r1 = 0.3184 x1 = 0.42369999 r0 = 0.83779999 x0 = 1.4285999 c1 = 0 c0 = 0 units = km normamps = 425 
New line.linha_MCLD205_2649 bus1 = 1913 bus2 = 1908 length = 0.077600002 phases = 3 r1 = 1.0145 x1 = 0.46789999 r0 = 1.7625 x0 = 1.8902 c1 = 0 c0 = 0 units = km normamps = 201 
New line.linha_MCLD205_2652 bus1 = 1894 bus2 = 1892 length = 0.1069 phases = 3 r1 = 1.0145001 x1 = 0.46790002 r0 = 1.7625 x0 = 1.8902 c1 = 0 c0 = 0 units = km normamps = 201 
New line.linha_MCLD205_2654 bus1 = 1894 bus2 = 1889 length = 0.064499997 phases = 3 r1 = 1.0145 x1 = 0.46789999 r0 = 1.7625001 x0 = 1.8901999 c1 = 0 c0 = 0 units = km normamps = 201 
New line.linha_MCLD205_2658 bus1 = 1986 bus2 = 1985 length = 0.1653 phases = 3 r1 = 1.6118 x1 = 0.4853 r0 = 2.3877001 x0 = 1.9433001 c1 = 0 c0 = 0 units = km normamps = 150 
New line.linha_MCLD205_2659 bus1 = 1986 bus2 = 1984 length = 0.028200001 phases = 3 r1 = 0.73940001 x1 = 0.3048 r0 = 2.2182001 x0 = 0.91439998 c1 = 0 c0 = 0 units = km normamps = 229 
New line.linha_MCLD205_2663 bus1 = 229 bus2 = 228 length = 0.027000001 phases = 3 r1 = 0.2006 x1 = 0.40259998 r0 = 0.72000003 x0 = 1.4069999 c1 = 0 c0 = 0 units = km normamps = 576 
New line.linha_MCLD205_2668 bus1 = 228 bus2 = 227 length = 0.127 phases = 3 r1 = 0.20059999 x1 = 0.40259999 r0 = 0.72000003 x0 = 1.407 c1 = 0 c0 = 0 units = km normamps = 576 
New line.linha_MCLD205_2661 bus1 = 1970 bus2 = 1969 length = 0.076899998 phases = 3 r1 = 0.3184 x1 = 0.42369998 r0 = 0.83779996 x0 = 1.4285999 c1 = 0 c0 = 0 units = km normamps = 425 
New line.linha_MCLD205_2666 bus1 = 1969 bus2 = 1968 length = 0.1165 phases = 3 r1 = 0.31839998 x1 = 0.4237 r0 = 0.83780003 x0 = 1.4285999 c1 = 0 c0 = 0 units = km normamps = 425 
New line.linha_MCLD205_2667 bus1 = 229 bus2 = 1991 length = 0.1246 phases = 3 r1 = 0.73940004 x1 = 0.30479999 r0 = 2.2182 x0 = 0.91440003 c1 = 0 c0 = 0 units = km normamps = 229 
New line.linha_MCLD205_2676 bus1 = 1991 bus2 = 1989 length = 0.16580001 phases = 3 r1 = 0.73940003 x1 = 0.30480001 r0 = 2.2181998 x0 = 0.9144 c1 = 0 c0 = 0 units = km normamps = 229 
New line.linha_MCLD205_2669 bus1 = 1955 bus2 = 1953 length = 0.056499999 phases = 3 r1 = 1.6118 x1 = 0.4853 r0 = 2.3877 x0 = 1.9433001 c1 = 0 c0 = 0 units = km normamps = 150 
New line.linha_MCLD205_2670 bus1 = 1955 bus2 = 1951 length = 0.0233 phases = 3 r1 = 1.6117999 x1 = 0.48530003 r0 = 2.3877 x0 = 1.9433 c1 = 0 c0 = 0 units = km normamps = 150 
New line.linha_MCLD205_2675 bus1 = 1961 bus2 = 1958 length = 0.121 phases = 3 r1 = 1.6118 x1 = 0.51029995 r0 = 1.8754 x0 = 0.96700003 c1 = 0 c0 = 0 units = km normamps = 150 
New line.linha_MCLD205_2681 bus1 = 1958 bus2 = 1957 length = 0.13429999 phases = 3 r1 = 1.6118 x1 = 0.51029998 r0 = 1.8753998 x0 = 0.967 c1 = 0 c0 = 0 units = km normamps = 150 
New line.linha_MCLD205_2682 bus1 = 227 bus2 = 1998 length = 0.030099999 phases = 3 r1 = 1.0145001 x1 = 0.46790001 r0 = 1.7625 x0 = 1.8902 c1 = 0 c0 = 0 units = km normamps = 201 
New line.linha_MCLD205_2688 bus1 = 1998 bus2 = 1997 length = 0.1304 phases = 3 r1 = 1.0145001 x1 = 0.4679 r0 = 1.7625001 x0 = 1.8902001 c1 = 0 c0 = 0 units = km normamps = 201 
New line.linha_MCLD205_2680 bus1 = 1965 bus2 = 1964 length = 0.0273 phases = 3 r1 = 0.31839997 x1 = 0.42370002 r0 = 0.83780005 x0 = 1.4285999 c1 = 0 c0 = 0 units = km normamps = 425 
New line.linha_MCLD205_2687 bus1 = 1964 bus2 = 1963 length = 0.029999999 phases = 3 r1 = 0.3184 x1 = 0.42370001 r0 = 0.83780006 x0 = 1.4286 c1 = 0 c0 = 0 units = km normamps = 425 
New line.linha_MCLD205_2678 bus1 = 1921 bus2 = 1920 length = 0.062399998 phases = 3 r1 = 1.6117999 x1 = 0.48529999 r0 = 2.3877001 x0 = 1.9433001 c1 = 0 c0 = 0 units = km normamps = 150 
New line.linha_MCLD205_2685 bus1 = 1967 bus2 = 1792 length = 0.1498 phases = 3 r1 = 1.0144999 x1 = 0.46789996 r0 = 1.7625 x0 = 1.8902 c1 = 0 c0 = 0 units = km normamps = 201 
New line.linha_MCLD205_2690 bus1 = 1792 bus2 = 1791 length = 0.0251 phases = 3 r1 = 1.0145 x1 = 0.46790003 r0 = 1.7625 x0 = 1.8902 c1 = 0 c0 = 0 units = km normamps = 201 
New line.linha_MCLD205_2683 bus1 = 1919 bus2 = 1918 length = 0.3707 phases = 3 r1 = 1.6117999 x1 = 0.48529998 r0 = 2.3877002 x0 = 1.9433 c1 = 0 c0 = 0 units = km normamps = 150 
New line.linha_MCLD205_2684 bus1 = 1919 bus2 = 1916 length = 0.092100002 phases = 3 r1 = 1.6118 x1 = 0.48529999 r0 = 2.3877 x0 = 1.9433001 c1 = 0 c0 = 0 units = km normamps = 150 
New line.linha_MCLD205_2693 bus1 = 1997 bus2 = 1995 length = 0.041299999 phases = 3 r1 = 1.0145001 x1 = 0.4679 r0 = 1.7625 x0 = 1.8902002 c1 = 0 c0 = 0 units = km normamps = 201 
New line.linha_MCLD205_2691 bus1 = 1965 bus2 = 1924 length = 0.087099999 phases = 3 r1 = 1.1777117 x1 = 0.47265453 r0 = 1.9333354 x0 = 1.9047095 c1 = 0 c0 = 0 units = km normamps = 187.06429 
New line.linha_MCLD205_2699 bus1 = 1997 bus2 = 1994 length = 0.126 phases = 3 r1 = 0.79398337 x1 = 0.3371611 r0 = 2.1277833 x0 = 1.1080111 c1 = 0 c0 = 0 units = km normamps = 223.44444 
New line.linha_MCLD205_2697 bus1 = 1791 bus2 = 1790 length = 0.062799998 phases = 3 r1 = 1.0145001 x1 = 0.4679 r0 = 1.7625 x0 = 1.8902 c1 = 0 c0 = 0 units = km normamps = 201 
New line.linha_MCLD205_2701 bus1 = 1790 bus2 = 1789 length = 0.093199998 phases = 3 r1 = 1.0145 x1 = 0.46789999 r0 = 1.7625001 x0 = 1.8902001 c1 = 0 c0 = 0 units = km normamps = 201 
New line.linha_MCLD205_2706 bus1 = 218 bus2 = 216 length = 0.0275 phases = 3 r1 = 0.20059999 x1 = 0.40259997 r0 = 0.72 x0 = 1.4069999 c1 = 0 c0 = 0 units = km normamps = 576 
New line.linha_MCLD205_2712 bus1 = 216 bus2 = 215 length = 0.084399998 phases = 3 r1 = 0.2006 x1 = 0.40259998 r0 = 0.71999999 x0 = 1.407 c1 = 0 c0 = 0 units = km normamps = 576 
New line.linha_MCLD205_2708 bus1 = 220 bus2 = 1765 length = 0.028999999 phases = 3 r1 = 1.6117999 x1 = 0.48530001 r0 = 2.3876999 x0 = 1.9433001 c1 = 0 c0 = 0 units = km normamps = 150 
New line.linha_MCLD205_2713 bus1 = 1765 bus2 = 1764 length = 0.1331 phases = 3 r1 = 1.6117999 x1 = 0.48530003 r0 = 2.3876999 x0 = 1.9433 c1 = 0 c0 = 0 units = km normamps = 150 
New line.linha_MCLD205_2710 bus1 = 1789 bus2 = 1787 length = 0.094000001 phases = 3 r1 = 0.91616643 x1 = 0.40960042 r0 = 1.9253885 x0 = 1.5414034 c1 = 0 c0 = 0 units = km normamps = 211.00851 
New line.linha_MCLD205_2711 bus1 = 2007 bus2 = 2006 length = 0.021 phases = 3 r1 = 1.0145 x1 = 0.46790002 r0 = 1.7625 x0 = 1.8902 c1 = 0 c0 = 0 units = km normamps = 201 
New line.linha_MCLD205_2709 bus1 = 1950 bus2 = 1947 length = 0.062700003 phases = 3 r1 = 1.0145 x1 = 0.46789999 r0 = 1.7625001 x0 = 1.8902001 c1 = 0 c0 = 0 units = km normamps = 201 
New line.linha_MCLD205_2714 bus1 = 1947 bus2 = 1946 length = 0.093599997 phases = 3 r1 = 1.0145001 x1 = 0.46790002 r0 = 1.7625 x0 = 1.8902001 c1 = 0 c0 = 0 units = km normamps = 201 
New line.linha_MCLD205_2719 bus1 = 215 bus2 = 214 length = 0.087399997 phases = 3 r1 = 0.20060001 x1 = 0.4026 r0 = 0.72000003 x0 = 1.4069999 c1 = 0 c0 = 0 units = km normamps = 576 
New line.linha_MCLD205_2726 bus1 = 214 bus2 = 213 length = 0.060800001 phases = 3 r1 = 0.2006 x1 = 0.40259998 r0 = 0.72000002 x0 = 1.407 c1 = 0 c0 = 0 units = km normamps = 576 
New line.linha_MCLD205_2716 bus1 = 1944 bus2 = 1939 length = 0.035 phases = 3 r1 = 1.0145 x1 = 0.4679 r0 = 1.7625 x0 = 1.8902 c1 = 0 c0 = 0 units = km normamps = 201 
New line.linha_MCLD205_2721 bus1 = 1939 bus2 = 1937 length = 0.13510001 phases = 3 r1 = 1.0145001 x1 = 0.46790002 r0 = 1.7625001 x0 = 1.8902 c1 = 0 c0 = 0 units = km normamps = 201 
New line.linha_MCLD205_2725 bus1 = 215 bus2 = 2009 length = 0.060400002 phases = 3 r1 = 1.6118 x1 = 0.4853 r0 = 2.3877 x0 = 1.9432999 c1 = 0 c0 = 0 units = km normamps = 150 
New line.linha_MCLD205_2727 bus1 = 1937 bus2 = 1936 length = 0.042199999 phases = 3 r1 = 1.0145 x1 = 0.46790001 r0 = 1.7625001 x0 = 1.8901999 c1 = 0 c0 = 0 units = km normamps = 201 
New line.linha_MCLD205_2728 bus1 = 1937 bus2 = 1935 length = 0.064000003 phases = 3 r1 = 1.0145 x1 = 0.4679 r0 = 1.7625001 x0 = 1.8902001 c1 = 0 c0 = 0 units = km normamps = 201 
New line.linha_MCLD205_2730 bus1 = 1941 bus2 = 1929 length = 0.0746 phases = 3 r1 = 0.99462935 x1 = 0.39131891 r0 = 2.0205624 x0 = 1.5398098 c1 = 0 c0 = 0 units = km normamps = 179.92091 
...